Hello world
This is a new line
New line.
